3
# CELL(abcABC):    7.00000     7.00000     7.00000    90.00000    90.00000    90.00000  Step:           0  Bead:       0 positions{atomic_unit}  cell{atomic_unit}
       O  3.77946e+00  3.41870e+00  3.77945e+00
       H  3.77945e+00  4.52675e+00  5.21072e+00
       H  3.77945e+00  4.52675e+00  2.34819e+00