3
# CELL(abcABC): 3.7042405246e+00  3.7042405246e+00  3.7042405246e+00  9.0000000000e+01  9.0000000000e+01  9.0000000000e+01   positions{angstrom} cell{angstrom}
O       2.000004127582299      1.809098154489161      1.999998835810121
H       1.999998835810121      2.395452970671252      2.757394312329178
H       1.999998835810121      2.395452970671252      1.242608651063241
