3
# CELL(abcABC):    7.00000     7.00000     7.00000    90.00000    90.00000    90.00000  Step:         500  Bead:       0 velocities{atomic_unit}  cell{atomic_unit}
       O -6.11425e-09 -1.52142e-04 -2.73884e-07
       H  4.85956e-08  1.20953e-03  1.76107e-03
       H  4.84580e-08  1.20549e-03 -1.75672e-03